{
    "id": "1590936951",
    "title": "Value-Based Distributions in Fortran D",
    "venue": "ieee international conference on high performance computing data and analytics",
    "year": 1994,
    "authors": [
        {
            "name": "Reinhard von Hanxleden",
            "id": "2230961733",
            "org": "Rice University"
        },
        {
            "name": "Ken Kennedy",
            "id": "2136496678",
            "org": "Rice University"
        },
        {
            "name": "Joel H. Saltz",
            "id": "2807145796",
            "org": "University of Maryland"
        }
    ],
    "fields_of_study": [
        "Scalability",
        "Parallel computing",
        "Indexation",
        "Locality",
        "Distributed computing",
        "Computer science",
        "High Performance Fortran",
        "Compiler",
        "MODFLOW",
        "Data structure",
        "Fortran"
    ],
    "references": [
        "1604860806",
        "1996384031",
        "2127282737"
    ]
}