{
    "id": "1576974478",
    "title": "An Overview of the Fortran D Programming System",
    "venue": "languages and compilers for parallel computing",
    "year": 1991,
    "authors": [
        {
            "name": "Seema Hiranandani",
            "id": "2047566528",
            "org": "Rice University"
        },
        {
            "name": "Ken Kennedy",
            "id": "2136496678",
            "org": "Rice University"
        },
        {
            "name": "Charles Koelbel",
            "id": "2175709007",
            "org": "Rice University"
        },
        {
            "name": "Ulrich Kremer",
            "id": "2286609894",
            "org": "Rice University"
        },
        {
            "name": "Chau-Wen Tseng",
            "id": "2105068653",
            "org": "Rice University"
        }
    ],
    "fields_of_study": [
        "Computer architecture",
        "High-level programming language",
        "Computational science",
        "Computation",
        "Computer science",
        "Compiler",
        "Parallel programming model",
        "MODFLOW",
        "Procedural programming",
        "Programming paradigm",
        "Fortran"
    ],
    "references": [
        "129396582",
        "1495096560",
        "1977026930",
        "1977697058",
        "1997835767",
        "2024804689",
        "2049824838",
        "2053546108",
        "2056458773",
        "2057303472",
        "2063905556",
        "2088560953",
        "2092309910",
        "2095798890",
        "2102430469",
        "2118735733",
        "2125380948",
        "2160650521",
        "2167548825"
    ]
}